<?xml version="1.0" encoding="UTF-8"?>

<!-- generated on 2024-09-20 13:41:55 by Eclipse SUMO netedit Version 1.20.0
<configuration xmlns:xsi="http://www.w3.org/2001/XMLSchema-instance" xsi:noNamespaceSchemaLocation="http://sumo.dlr.de/xsd/neteditConfiguration.xsd">

    <input>
        <sumo-net-file value="C:\Schlothauer\OneDrive - Swarco AG\AIAMO\2_projWork\Simulation\2024-08-26 SImulation IST Stand\V7_landau_small_opt.net.xml"/>
    </input>

    <output>
        <output-file value="C:\Schlothauer\OneDrive - Swarco AG\AIAMO\2_projWork\Simulation\2024-08-26 SImulation IST Stand\V7_landau_small_opt.net.xml"/>
        <output.street-names value="true"/>
    </output>

    <processing>
        <geometry.min-radius.fix.railways value="false"/>
        <geometry.max-grade.fix value="false"/>
        <offset.disable-normalization value="true"/>
        <lefthand value="0"/>
    </processing>

    <junctions>
        <no-turnarounds value="true"/>
        <junctions.corner-detail value="5"/>
        <junctions.limit-turn-speed value="5.50"/>
        <rectangular-lane-cut value="0"/>
    </junctions>

    <pedestrian>
        <walkingareas value="0"/>
    </pedestrian>

</configuration>
-->

<net version="1.20" junctionCornerDetail="5" limitTurnSpeed="5.50" xmlns:xsi="http://www.w3.org/2001/XMLSchema-instance" xsi:noNamespaceSchemaLocation="http://sumo.dlr.de/xsd/net_file.xsd">

    <location netOffset="-432669.62,-5448263.76" convBoundary="2625.15,897.88,3945.05,2208.27" origBoundary="8.075636,49.183827,8.153612,49.219655" projParameter="+proj=utm +zone=32 +ellps=WGS84 +datum=WGS84 +units=m +no_defs"/>

    <type id="highway.path" priority="1" numLanes="1" speed="5.56" allow="pedestrian bicycle" oneway="0" width="2.00"/>
    <type id="highway.residential" priority="3" numLanes="1" speed="13.89" disallow="tram rail_urban rail rail_electric rail_fast ship container cable_car subway aircraft wheelchair scooter drone" oneway="0"/>
    <type id="highway.secondary" priority="11" numLanes="1" speed="27.78" disallow="tram rail_urban rail rail_electric rail_fast ship container cable_car subway aircraft wheelchair scooter drone" oneway="0"/>
    <type id="highway.secondary_link" priority="6" numLanes="1" speed="22.22" disallow="tram rail_urban rail rail_electric rail_fast ship container cable_car subway aircraft wheelchair scooter drone" oneway="0"/>
    <type id="highway.service" priority="1" numLanes="1" speed="5.56" allow="pedestrian delivery bicycle" oneway="0"/>
    <type id="highway.tertiary" priority="10" numLanes="1" speed="22.22" disallow="tram rail_urban rail rail_electric rail_fast ship container cable_car subway aircraft wheelchair scooter drone" oneway="0"/>
    <type id="highway.tertiary_link" priority="5" numLanes="1" speed="22.22" disallow="tram rail_urban rail rail_electric rail_fast ship container cable_car subway aircraft wheelchair scooter drone" oneway="0"/>
    <type id="highway.unclassified" priority="4" numLanes="1" speed="13.89" disallow="tram rail_urban rail rail_electric rail_fast ship container cable_car subway aircraft wheelchair scooter drone" oneway="0"/>

    <edge id=":105697838_0" function="internal">
        <lane id=":105697838_0_0" index="0" disallow="tram rail_urban rail rail_electric rail_fast ship container cable_car subway aircraft wheelchair scooter drone" speed="10.24" length="23.51" shape="3083.04,1913.14 3074.18,1913.42 3067.80,1914.71 3063.91,1917.02 3062.49,1920.34">
            <param key="DTV" value="1000"/>
            <param key="SG" value="K2"/>
        </lane>
    </edge>
    <edge id=":105697838_1" function="internal">
        <lane id=":105697838_1_0" index="0" disallow="tram rail_urban rail rail_electric rail_fast ship container cable_car subway aircraft wheelchair scooter drone" speed="13.89" length="40.94" shape="3083.04,1913.14 3042.11,1911.98">
            <param key="DTV" value="1073"/>
            <param key="SG" value="K2"/>
        </lane>
    </edge>
    <edge id=":105697838_2" function="internal">
        <lane id=":105697838_2_0" index="0" disallow="tram rail_urban rail rail_electric rail_fast ship container cable_car subway aircraft wheelchair scooter drone" speed="11.29" length="10.55" shape="3083.04,1913.14 3072.66,1911.26">
            <param key="DTV" value="493"/>
            <param key="SG" value="K2"/>
        </lane>
    </edge>
    <edge id=":105697838_12" function="internal">
        <lane id=":105697838_12_0" index="0" disallow="tram rail_urban rail rail_electric rail_fast ship container cable_car subway aircraft wheelchair scooter drone" speed="11.29" length="27.04" shape="3072.66,1911.26 3072.50,1911.23 3066.07,1906.25 3063.98,1898.44 3066.44,1888.06">
            <param key="DTV" value="493"/>
            <param key="SG" value="K2"/>
        </lane>
    </edge>
    <edge id=":105697838_3" function="internal">
        <lane id=":105697838_3_0" index="0" disallow="tram rail_urban rail rail_electric rail_fast ship container cable_car subway aircraft wheelchair scooter drone" speed="9.28" length="24.97" shape="3070.56,1894.83 3069.06,1901.28 3070.66,1905.95 3075.37,1908.84 3083.18,1909.95">
            <param key="DM" value="125"/>
            <param key="DTV" value="500"/>
            <param key="SG" value="K3"/>
        </lane>
    </edge>
    <edge id=":105697838_4" function="internal">
        <lane id=":105697838_4_0" index="0" disallow="tram rail_urban rail rail_electric rail_fast ship container cable_car subway aircraft wheelchair scooter drone" speed="13.89" length="26.83" shape="3070.56,1894.83 3067.71,1902.01 3065.17,1909.17 3063.31,1915.55 3062.49,1920.34">
            <param key="DM" value="27"/>
            <param key="DTV" value="500"/>
            <param key="SG" value="K3"/>
        </lane>
    </edge>
    <edge id=":105697838_5" function="internal">
        <lane id=":105697838_5_0" index="0" disallow="tram rail_urban rail rail_electric rail_fast ship container cable_car subway aircraft wheelchair scooter drone" speed="13.89" length="0.98" shape="3067.49,1893.88 3067.01,1894.74">
            <param key="DM" value="70"/>
            <param key="DTV" value="1188"/>
            <param key="SG" value="K3"/>
        </lane>
    </edge>
    <edge id=":105697838_13" function="internal">
        <lane id=":105697838_13_0" index="0" disallow="tram rail_urban rail rail_electric rail_fast ship container cable_car subway aircraft wheelchair scooter drone" speed="13.89" length="32.38" shape="3067.01,1894.74 3062.98,1902.04 3057.25,1907.77 3050.30,1911.09 3042.11,1911.98">
            <param key="DM" value="70"/>
            <param key="DTV" value="1188"/>
            <param key="SG" value="K3"/>
        </lane>
    </edge>
    <edge id=":105697838_6" function="internal">
        <lane id=":105697838_6_0" index="0" disallow="tram rail_urban rail rail_electric rail_fast ship container cable_car subway aircraft wheelchair scooter drone" speed="12.86" length="27.74" shape="3047.23,1905.76 3052.82,1904.80 3057.88,1901.53 3062.42,1895.95 3066.44,1888.06">
            <param key="DTV" value="1819"/>
            <param key="SG" value="K4"/>
        </lane>
    </edge>
    <edge id=":105697838_7" function="internal">
        <lane id=":105697838_7_0" index="0" disallow="tram rail_urban rail rail_electric rail_fast ship container cable_car subway aircraft wheelchair scooter drone" speed="13.89" length="36.19" shape="3047.23,1905.76 3083.18,1909.95">
            <param key="DTV" value="1000"/>
            <param key="SG" value="K4"/>
        </lane>
    </edge>
    <edge id=":105697838_8" function="internal">
        <lane id=":105697838_8_0" index="0" disallow="tram rail_urban rail rail_electric rail_fast ship container cable_car subway aircraft wheelchair scooter drone" speed="10.68" length="8.82" shape="3041.78,1908.77 3050.55,1909.72">
            <param key="DTV" value="1000"/>
        </lane>
    </edge>
    <edge id=":105697838_14" function="internal">
        <lane id=":105697838_14_0" index="0" disallow="tram rail_urban rail rail_electric rail_fast ship container cable_car subway aircraft wheelchair scooter drone" speed="10.68" length="17.50" shape="3050.55,1909.72 3051.03,1909.78 3057.56,1912.04 3061.38,1915.56 3062.49,1920.34">
            <param key="DTV" value="1000"/>
        </lane>
    </edge>
    <edge id=":105697838_9" function="internal">
        <lane id=":105697838_9_0" index="0" disallow="tram rail_urban rail rail_electric rail_fast ship container cable_car subway aircraft wheelchair scooter drone" speed="9.56" length="20.84" shape="3059.30,1920.17 3058.35,1916.82 3055.17,1914.34 3049.76,1912.73 3042.11,1911.98">
            <param key="DTV" value="2147"/>
            <param key="SG" value="K1"/>
        </lane>
    </edge>
    <edge id=":105697838_10" function="internal">
        <lane id=":105697838_10_0" index="0" disallow="tram rail_urban rail rail_electric rail_fast ship container cable_car subway aircraft wheelchair scooter drone" speed="13.89" length="32.94" shape="3059.30,1920.17 3060.24,1913.70 3062.24,1903.97 3064.55,1894.32 3066.44,1888.06">
            <param key="DTV" value="1000"/>
            <param key="SG" value="K1"/>
        </lane>
    </edge>
    <edge id=":105697838_11" function="internal">
        <lane id=":105697838_11_0" index="0" disallow="tram rail_urban rail rail_electric rail_fast ship container cable_car subway aircraft wheelchair scooter drone" speed="11.23" length="3.96" shape="3059.30,1920.17 3060.64,1916.44">
            <param key="DTV" value="1000"/>
            <param key="SG" value="K1"/>
        </lane>
    </edge>
    <edge id=":105697838_15" function="internal">
        <lane id=":105697838_15_0" index="0" disallow="tram rail_urban rail rail_electric rail_fast ship container cable_car subway aircraft wheelchair scooter drone" speed="11.23" length="24.49" shape="3060.64,1916.44 3060.97,1915.50 3065.51,1912.24 3072.91,1910.39 3083.18,1909.95">
            <param key="DTV" value="1000"/>
            <param key="SG" value="K1"/>
        </lane>
    </edge>
    <edge id=":105697868_0" function="internal">
        <lane id=":105697868_0_0" index="0" disallow="tram rail_urban rail rail_electric rail_fast ship container cable_car subway aircraft wheelchair scooter drone" speed="7.96" length="10.72" shape="3585.62,1494.84 3584.74,1492.60 3583.10,1490.89 3580.68,1489.70 3577.50,1489.03"/>
    </edge>
    <edge id=":105697868_1" function="internal">
        <lane id=":105697868_1_0" index="0" disallow="tram rail_urban rail rail_electric rail_fast ship container cable_car subway aircraft wheelchair scooter drone" speed="13.89" length="14.70" shape="3585.62,1494.84 3582.75,1480.43"/>
        <lane id=":105697868_1_1" index="1" disallow="tram rail_urban rail rail_electric rail_fast ship container cable_car subway aircraft wheelchair scooter drone" speed="13.89" length="14.70" shape="3588.76,1494.22 3585.89,1479.80"/>
    </edge>
    <edge id=":105697868_3" function="internal">
        <lane id=":105697868_3_0" index="0" disallow="tram rail_urban rail rail_electric rail_fast ship container cable_car subway aircraft wheelchair scooter drone" speed="13.89" length="14.70" shape="3589.03,1479.18 3591.90,1493.59"/>
    </edge>
    <edge id=":105697868_4" function="internal">
        <lane id=":105697868_4_0" index="0" disallow="tram rail_urban rail rail_electric rail_fast ship container cable_car subway aircraft wheelchair scooter drone" speed="5.95" length="9.12" shape="3577.82,1485.85 3580.44,1485.77 3582.13,1484.84 3582.90,1483.06 3582.75,1480.43"/>
    </edge>
    <edge id=":10899688424_0" function="internal">
        <lane id=":10899688424_0_0" index="0" allow="pedestrian bicycle" speed="5.56" length="5.50" width="2.00" shape="2914.07,1057.22 2913.90,1058.72 2913.25,1059.61 2912.34,1060.45 2911.38,1061.79"/>
    </edge>
    <edge id=":10899688424_1" function="internal">
        <lane id=":10899688424_1_0" index="0" allow="pedestrian bicycle" speed="5.56" length="3.74" width="2.00" shape="2909.60,1060.87 2910.17,1059.91 2910.60,1059.24 2910.85,1058.53 2910.88,1057.46"/>
    </edge>
    <edge id=":11274621607_0" function="internal">
        <lane id=":11274621607_0_0" index="0" disallow="tram rail_urban rail rail_electric rail_fast ship container cable_car subway aircraft wheelchair scooter drone" speed="13.89" length="7.00" shape="2894.40,1100.40 2888.16,1097.23"/>
        <lane id=":11274621607_0_1" index="1" disallow="tram rail_urban rail rail_electric rail_fast ship container cable_car subway aircraft wheelchair scooter drone" speed="13.89" length="7.00" shape="2895.85,1097.54 2889.61,1094.38"/>
    </edge>
    <edge id=":11274621607_2" function="internal">
        <lane id=":11274621607_2_0" index="0" allow="pedestrian bicycle" speed="8.08" length="1.93" width="2.00" shape="2895.85,1097.54 2894.58,1096.09"/>
    </edge>
    <edge id=":11274621607_9" function="internal">
        <lane id=":11274621607_9_0" index="0" allow="pedestrian bicycle" speed="8.08" length="12.61" width="2.00" shape="2894.58,1096.09 2894.44,1095.93 2894.26,1093.17 2895.31,1089.25 2897.61,1084.17"/>
    </edge>
    <edge id=":11274621607_3" function="internal">
        <lane id=":11274621607_3_0" index="0" allow="pedestrian bicycle" speed="4.66" length="4.53" width="2.00" shape="2899.38,1085.09 2898.90,1086.37 2898.88,1087.44 2899.31,1088.32 2900.20,1088.99"/>
    </edge>
    <edge id=":11274621607_4" function="internal">
        <lane id=":11274621607_4_0" index="0" allow="pedestrian bicycle" speed="7.99" length="14.49" width="2.00" shape="2899.38,1085.09 2896.59,1089.91 2894.03,1093.06 2891.71,1094.55 2889.61,1094.38"/>
    </edge>
    <edge id=":11274621607_5" function="internal">
        <lane id=":11274621607_5_0" index="0" allow="pedestrian bicycle" speed="4.85" length="4.54" width="2.00" shape="2893.96,1085.82 2895.02,1086.14 2895.98,1085.97 2896.84,1085.32 2897.61,1084.17"/>
    </edge>
    <edge id=":11274621607_6" function="internal">
        <lane id=":11274621607_6_0" index="0" disallow="tram rail_urban rail rail_electric rail_fast ship container cable_car subway aircraft wheelchair scooter drone" speed="13.89" length="7.00" shape="2893.96,1085.82 2900.20,1088.99"/>
        <lane id=":11274621607_6_1" index="1" disallow="tram rail_urban rail rail_electric rail_fast ship container cable_car subway aircraft wheelchair scooter drone" speed="13.89" length="7.00" shape="2892.51,1088.67 2898.75,1091.84"/>
        <lane id=":11274621607_6_2" index="2" disallow="tram rail_urban rail rail_electric rail_fast ship container cable_car subway aircraft wheelchair scooter drone" speed="13.89" length="7.00" shape="2891.06,1091.52 2897.30,1094.69"/>
    </edge>
    <edge id=":11347179278_0" function="internal">
        <lane id=":11347179278_0_0" index="0" disallow="tram rail_urban rail rail_electric rail_fast ship container cable_car subway aircraft wheelchair scooter drone" speed="13.89" length="9.41" shape="2977.11,1146.25 2968.72,1141.98"/>
        <lane id=":11347179278_0_1" index="1" disallow="tram rail_urban rail rail_electric rail_fast ship container cable_car subway aircraft wheelchair scooter drone" speed="13.89" length="9.41" shape="2978.56,1143.40 2970.18,1139.13"/>
        <lane id=":11347179278_0_2" index="2" disallow="tram rail_urban rail rail_electric rail_fast ship container cable_car subway aircraft wheelchair scooter drone" speed="13.89" length="9.41" shape="2980.01,1140.55 2971.63,1136.28"/>
    </edge>
    <edge id=":11347179278_3" function="internal">
        <lane id=":11347179278_3_0" index="0" allow="pedestrian delivery bicycle" speed="7.66" length="2.80" shape="2980.01,1140.55 2977.84,1138.78"/>
    </edge>
    <edge id=":11347179278_10" function="internal">
        <lane id=":11347179278_10_0" index="0" allow="pedestrian delivery bicycle" speed="7.66" length="10.04" shape="2977.84,1138.78 2976.90,1136.30 2977.19,1133.11 2978.71,1129.21"/>
    </edge>
    <edge id=":11347179278_4" function="internal">
        <lane id=":11347179278_4_0" index="0" allow="pedestrian delivery bicycle" speed="5.06" length="5.03" shape="2981.57,1130.64 2981.13,1131.95 2981.20,1133.09 2981.80,1134.06 2982.92,1134.85"/>
    </edge>
    <edge id=":11347179278_5" function="internal">
        <lane id=":11347179278_5_0" index="0" allow="pedestrian delivery bicycle" speed="8.37" length="15.73" shape="2981.57,1130.64 2978.72,1135.44 2975.87,1138.46 2973.02,1139.68 2970.18,1139.13"/>
        <lane id=":11347179278_5_1" index="1" allow="pedestrian delivery bicycle" speed="7.63" length="12.90" shape="2981.57,1130.64 2979.35,1134.19 2976.95,1136.31 2974.38,1137.01 2971.63,1136.28"/>
    </edge>
    <edge id=":11347179278_7" function="internal">
        <lane id=":11347179278_7_0" index="0" allow="pedestrian delivery bicycle" speed="5.03" length="5.01" shape="2974.54,1130.58 2975.84,1131.02 2976.97,1130.94 2977.92,1130.34 2978.71,1129.21"/>
    </edge>
    <edge id=":11347179278_8" function="internal">
        <lane id=":11347179278_8_0" index="0" disallow="tram rail_urban rail rail_electric rail_fast ship container cable_car subway aircraft wheelchair scooter drone" speed="13.89" length="9.40" shape="2974.54,1130.58 2982.92,1134.85"/>
        <lane id=":11347179278_8_1" index="1" disallow="tram rail_urban rail rail_electric rail_fast ship container cable_car subway aircraft wheelchair scooter drone" speed="13.89" length="9.40" shape="2973.09,1133.43 2981.46,1137.70"/>
    </edge>
    <edge id=":11347179280_0" function="internal">
        <lane id=":11347179280_0_0" index="0" disallow="tram rail_urban rail rail_electric rail_fast ship container cable_car subway aircraft wheelchair scooter drone" speed="13.89" length="0.10" shape="2773.55,1027.39 2773.55,1027.39"/>
        <lane id=":11347179280_0_1" index="1" disallow="tram rail_urban rail rail_electric rail_fast ship container cable_car subway aircraft wheelchair scooter drone" speed="13.89" length="0.10" shape="2775.72,1025.03 2775.72,1025.03"/>
    </edge>
    <edge id=":11347179280_2" function="internal">
        <lane id=":11347179280_2_0" index="0" disallow="tram rail_urban rail rail_electric rail_fast ship container cable_car subway aircraft wheelchair scooter drone" speed="13.89" length="0.10" shape="2777.88,1022.67 2777.88,1022.67"/>
    </edge>
    <edge id=":115976548_0" function="internal">
        <lane id=":115976548_0_0" index="0" disallow="tram rail_urban rail rail_electric rail_fast ship container cable_car subway aircraft wheelchair scooter drone" speed="13.89" length="1.39" shape="3617.09,1314.32 3616.61,1314.36 3616.28,1314.38 3615.95,1314.37 3615.47,1314.35"/>
        <lane id=":115976548_0_1" index="1" disallow="tram rail_urban rail rail_electric rail_fast ship container cable_car subway aircraft wheelchair scooter drone" speed="13.89" length="1.39" shape="3616.81,1311.13 3616.47,1311.16 3616.23,1311.17 3616.00,1311.17 3615.66,1311.15"/>
    </edge>
    <edge id=":115976548_2" function="internal">
        <lane id=":115976548_2_0" index="0" disallow="tram rail_urban rail rail_electric rail_fast ship container cable_car subway aircraft wheelchair scooter drone" speed="13.89" length="0.46" shape="3616.02,1304.76 3616.09,1304.76 3616.14,1304.77 3616.19,1304.76 3616.25,1304.76"/>
        <lane id=":115976548_2_1" index="1" disallow="tram rail_urban rail rail_electric rail_fast ship container cable_car subway aircraft wheelchair scooter drone" speed="13.89" length="0.46" shape="3615.84,1307.96 3616.04,1307.97 3616.19,1307.97 3616.33,1307.96 3616.53,1307.95"/>
    </edge>
    <edge id=":11935029001_0" function="internal">
        <lane id=":11935029001_0_0" index="0" disallow="tram rail_urban rail rail_electric rail_fast ship container cable_car subway aircraft wheelchair scooter drone" speed="13.89" length="8.00" shape="3106.75,1679.07 3099.37,1675.96"/>
    </edge>
    <edge id=":11935029001_1" function="internal">
        <lane id=":11935029001_1_0" index="0" disallow="tram rail_urban rail rail_electric rail_fast ship container cable_car subway aircraft wheelchair scooter drone" speed="13.89" length="8.40" shape="3100.61,1673.01 3103.08,1673.51 3104.92,1673.09 3106.77,1672.67 3109.23,1673.17"/>
        <lane id=":11935029001_1_1" index="1" disallow="tram rail_urban rail rail_electric rail_fast ship container cable_car subway aircraft wheelchair scooter drone" speed="13.89" length="8.40" shape="3100.61,1673.01 3107.99,1676.12"/>
    </edge>
    <edge id=":126446463_0" function="internal">
        <lane id=":126446463_0_0" index="0" disallow="tram rail_urban rail rail_electric rail_fast ship container cable_car subway aircraft wheelchair scooter drone" speed="7.61" length="13.27" shape="3546.85,2191.12 3546.49,2186.46 3545.42,2183.18 3543.64,2181.27 3541.15,2180.74">
            <param key="DA" value="87"/>
            <param key="DTV" value="891"/>
            <param key="SG" value="K5"/>
        </lane>
    </edge>
    <edge id=":126446463_1" function="internal">
        <lane id=":126446463_1_0" index="0" disallow="tram rail_urban rail rail_electric rail_fast ship container cable_car subway aircraft wheelchair scooter drone" speed="13.89" length="23.22" shape="3550.05,2191.12 3550.54,2183.34 3551.64,2177.17 3552.75,2172.23 3553.26,2168.16">
            <param key="DA" value="326"/>
            <param key="DM" value="264"/>
            <param key="DTV" value="4183"/>
            <param key="SG" value="K5"/>
        </lane>
    </edge>
    <edge id=":126446463_2" function="internal">
        <lane id=":126446463_2_0" index="0" disallow="tram rail_urban rail rail_electric rail_fast ship container cable_car subway aircraft wheelchair scooter drone" speed="11.74" length="9.85" shape="3553.25,2191.11 3554.01,2184.78 3555.43,2181.61">
            <param key="DA" value="165"/>
            <param key="DTV" value="1747"/>
            <param key="SG" value="K6"/>
        </lane>
    </edge>
    <edge id=":126446463_11" function="internal">
        <lane id=":126446463_11_0" index="0" disallow="tram rail_urban rail rail_electric rail_fast ship container cable_car subway aircraft wheelchair scooter drone" speed="11.74" length="13.72" shape="3555.43,2181.61 3556.31,2179.65 3560.15,2175.69 3565.53,2172.93">
            <param key="DA" value="165"/>
            <param key="DTV" value="1747"/>
            <param key="SG" value="K6"/>
        </lane>
    </edge>
    <edge id=":126446463_3" function="internal">
        <lane id=":126446463_3_0" index="0" disallow="tram rail_urban rail rail_electric rail_fast ship container cable_car subway aircraft wheelchair scooter drone" speed="9.07" length="17.59" shape="3568.19,2180.72 3563.05,2181.66 3559.38,2183.71 3557.18,2186.86 3556.45,2191.11">
            <param key="DA" value="189"/>
            <param key="DTV" value="2012"/>
            <param key="SG" value="K7"/>
        </lane>
    </edge>
    <edge id=":126446463_4" function="internal">
        <lane id=":126446463_4_0" index="0" disallow="tram rail_urban rail rail_electric rail_fast ship container cable_car subway aircraft wheelchair scooter drone" speed="13.89" length="26.16" shape="3567.12,2177.58 3541.15,2180.74">
            <param key="DA" value="373"/>
            <param key="DTV" value="4260"/>
            <param key="SG" value="K7"/>
        </lane>
    </edge>
    <edge id=":126446463_5" function="internal">
        <lane id=":126446463_5_0" index="0" disallow="tram rail_urban rail rail_electric rail_fast ship container cable_car subway aircraft wheelchair scooter drone" speed="8.28" length="4.35" shape="3566.05,2174.44 3561.70,2174.39">
            <param key="DA" value="131"/>
            <param key="DTV" value="1743"/>
            <param key="SG" value="K8"/>
        </lane>
    </edge>
    <edge id=":126446463_12" function="internal">
        <lane id=":126446463_12_0" index="0" disallow="tram rail_urban rail rail_electric rail_fast ship container cable_car subway aircraft wheelchair scooter drone" speed="8.28" length="11.74" shape="3561.70,2174.39 3560.45,2174.38 3556.45,2173.30 3554.05,2171.23 3553.26,2168.16">
            <param key="DA" value="131"/>
            <param key="DTV" value="1743"/>
            <param key="SG" value="K8"/>
        </lane>
    </edge>
    <edge id=":126446463_6" function="internal">
        <lane id=":126446463_6_0" index="0" disallow="tram rail_urban rail rail_electric rail_fast ship container cable_car subway aircraft wheelchair scooter drone" speed="13.89" length="23.19" shape="3559.66,2168.18 3559.14,2175.27 3558.04,2181.52 3556.94,2186.82 3556.45,2191.11">
            <param key="DA" value="432"/>
            <param key="DM" value="253"/>
            <param key="DTV" value="3918"/>
            <param key="SG" value="K1"/>
        </lane>
    </edge>
    <edge id=":126446463_7" function="internal">
        <lane id=":126446463_7_0" index="0" disallow="tram rail_urban rail rail_electric rail_fast ship container cable_car subway aircraft wheelchair scooter drone" speed="10.10" length="6.07" shape="3556.46,2168.17 3555.49,2173.35 3555.01,2173.99">
            <param key="DA" value="81"/>
            <param key="DTV" value="965"/>
            <param key="SG" value="K2"/>
        </lane>
    </edge>
    <edge id=":126446463_13" function="internal">
        <lane id=":126446463_13_0" index="0" disallow="tram rail_urban rail rail_electric rail_fast ship container cable_car subway aircraft wheelchair scooter drone" speed="10.10" length="16.13" shape="3555.01,2173.99 3552.62,2177.18 3547.84,2179.64 3541.15,2180.74">
            <param key="DA" value="81"/>
            <param key="DTV" value="965"/>
            <param key="SG" value="K2"/>
        </lane>
    </edge>
    <edge id=":126446463_8" function="internal">
        <lane id=":126446463_8_0" index="0" disallow="tram rail_urban rail rail_electric rail_fast ship container cable_car subway aircraft wheelchair scooter drone" speed="8.42" length="15.12" shape="3540.80,2174.35 3546.25,2173.71 3550.14,2172.46 3552.47,2170.61 3553.26,2168.16">
            <param key="DA" value="89"/>
            <param key="DTV" value="956"/>
            <param key="SG" value="K3"/>
        </lane>
    </edge>
    <edge id=":126446463_9" function="internal">
        <lane id=":126446463_9_0" index="0" disallow="tram rail_urban rail rail_electric rail_fast ship container cable_car subway aircraft wheelchair scooter drone" speed="13.89" length="24.82" shape="3540.80,2174.35 3548.22,2174.13 3555.15,2174.06 3561.09,2173.78 3565.53,2172.93">
            <param key="DA" value="357"/>
            <param key="DM" value="308"/>
            <param key="DTV" value="4152"/>
            <param key="SG" value="K3"/>
        </lane>
    </edge>
    <edge id=":126446463_10" function="internal">
        <lane id=":126446463_10_0" index="0" disallow="tram rail_urban rail rail_electric rail_fast ship container cable_car subway aircraft wheelchair scooter drone" speed="10.01" length="3.59" shape="3540.98,2177.54 3544.55,2177.83">
            <param key="DA" value="115"/>
            <param key="DTV" value="977"/>
            <param key="SG" value="K3"/>
        </lane>
    </edge>
    <edge id=":126446463_14" function="internal">
        <lane id=":126446463_14_0" index="0" disallow="tram rail_urban rail rail_electric rail_fast ship container cable_car subway aircraft wheelchair scooter drone" speed="10.01" length="20.16" shape="3544.55,2177.83 3547.74,2178.08 3552.57,2180.51 3555.47,2184.86 3556.45,2191.11">
            <param key="DA" value="115"/>
            <param key="DTV" value="977"/>
            <param key="SG" value="K3"/>
        </lane>
    </edge>
    <edge id=":129447558_0" function="internal">
        <lane id=":129447558_0_0" index="0" disallow="tram rail_urban rail rail_electric rail_fast ship container cable_car subway aircraft wheelchair scooter drone" speed="13.89" length="0.65" shape="3592.04,1759.09 3591.94,1759.74"/>
    </edge>
    <edge id=":129447558_1" function="internal">
        <lane id=":129447558_1_0" index="0" disallow="tram rail_urban rail rail_electric rail_fast ship container cable_car subway aircraft wheelchair scooter drone" speed="13.89" length="0.26" shape="3585.66,1758.53 3585.68,1758.40"/>
        <lane id=":129447558_1_1" index="1" disallow="tram rail_urban rail rail_electric rail_fast ship container cable_car subway aircraft wheelchair scooter drone" speed="13.89" length="0.26" shape="3588.80,1759.14 3588.86,1758.75"/>
    </edge>
    <edge id=":146284968_0" function="internal">
        <lane id=":146284968_0_0" index="0" disallow="tram rail_urban rail rail_electric rail_fast ship container cable_car subway aircraft wheelchair scooter drone" speed="13.89" length="39.50" shape="3604.68,1566.32 3601.58,1605.70">
            <param key="DA" value="529"/>
            <param key="DM" value="343"/>
            <param key="DTV" value="5775"/>
            <param key="SG" value="K1"/>
        </lane>
    </edge>
    <edge id=":146284968_1" function="internal">
        <lane id=":146284968_1_0" index="0" disallow="tram rail_urban rail rail_electric rail_fast ship container cable_car subway aircraft wheelchair scooter drone" speed="10.82" length="28.48" shape="3601.48,1566.40 3600.64,1576.49 3598.32,1583.54 3594.50,1587.55 3589.20,1588.53">
            <param key="DA" value="132"/>
            <param key="DM" value="73"/>
            <param key="DTV" value="1347"/>
            <param key="SG" value="K1"/>
        </lane>
    </edge>
    <edge id=":146284968_2" function="internal">
        <lane id=":146284968_2_0" index="0" disallow="tram rail_urban rail rail_electric rail_fast ship container cable_car subway aircraft wheelchair scooter drone" speed="9.32" length="20.85" shape="3589.55,1585.35 3591.91,1584.35 3593.62,1580.89 3594.68,1574.97 3595.08,1566.57">
            <param key="DA" value="86"/>
            <param key="DM" value="68"/>
            <param key="DTV" value="1011"/>